*Heading
** Job name: 090L_refined Model name: Model-090L_refined
** Generated by: Abaqus/CAE 2019.HF4
*Preprint, echo=NO, model=NO, history=NO, contact=NO
**
** PARTS
**
*Part, name=Part-local
*End Part
**  
**
** ASSEMBLY
**
*Assembly, name=Assembly
**  
*Instance, name=Part-local-1, part=Part-local
*Node
      1, 0.000500000024, 5.99999985e-05
      2, 0.000500000024, 2.99999992e-05
      3, 0.000699999975, 2.99999992e-05
      4, 0.000699999975, 5.99999985e-05
      5, 0.000500000024, -5.99999985e-05
      6, 0.000500000024, -0.000300000014
      7, 0.000699999975, -0.000300000014
      8, 0.000699999975, -5.99999985e-05
      9, -9.99999975e-05, 2.99999992e-05
     10, -9.99999975e-05, 5.99999985e-05
     11, -0.00100000005, 5.99999985e-05
     12, -0.00100000005, 2.99999992e-05
     13, 0.000300000014, 5.99999985e-05
     14, 0.000300000014, 2.99999992e-05
     15, -9.99999975e-05, -0.000300000014
     16, -9.99999975e-05, -5.99999985e-05
     17, -0.00100000005, -5.99999985e-05
     18, -0.00100000005, -0.000300000014
     19, 0.000300000014, -5.99999985e-05
     20, 0.000300000014, -0.000300000014
** ... 2580 like lines cut
*Element, type=DC2D4
 1,   1,  21, 522,  60
 2,  21,   2,  22, 522
 3,  60, 522, 523,  59
 4, 522,  22,  23, 523
 5,  59, 523, 524,  58
 6, 523,  23,  24, 524
 7,  58, 524, 525,  57
 8, 524,  24,  25, 525
 9,  57, 525, 526,  56
10, 525,  25,  26, 526
11,  56, 526, 527,  55
12, 526,  26,  27, 527
13,  55, 527, 528,  54
14, 527,  27,  28, 528
15,  54, 528, 529,  53
16, 528,  28,  29, 529
17,  53, 529, 530,  52
18, 529,  29,  30, 530
19,  52, 530, 531,  51
20, 530,  30,  31, 531
** ... 2452 like lines cut
*Nset, nset=Set-all, generate
    1,  2600,     1
*Elset, elset=Set-all, generate
    1,  2472,     1
** Section: Section-SS316
*Solid Section, elset=Set-all, material=Material-SS316
,
*End Instance
**  
*Nset, nset=Set-border, instance=Part-local-1
   1,   2,   3,   4,   5,   6,   7,   8,  11,  12,  15,  17,  18,  20,  21,  22
  23,  24,  25,  26,  27,  28,  29,  30,  31,  32,  33,  34,  35,  36,  37,  38
  39,  40,  41,  42,  43,  44,  45,  46,  47,  48,  49,  50,  51,  52,  53,  54
  55,  56,  57,  58,  59,  60,  61,  62,  63,  64,  65,  66,  67,  68,  69,  70
  71,  72,  73,  74,  75,  76,  77,  78,  79,  80,  81,  82,  83,  84,  85,  86
  87,  88,  89,  90,  91,  92,  93,  94,  95,  96,  97,  98,  99, 100, 101, 102
 103, 104, 105, 106, 107, 108, 109, 110, 111, 112, 113, 114, 115, 116, 117, 118
 119, 120, 121, 122, 146, 208, 209, 210, 211, 212, 213, 214, 215, 216, 217, 218
 219, 220, 221, 222, 223, 258, 259, 260, 261, 262, 263, 264, 265, 266, 267, 268
 269, 270, 271, 272, 273, 274, 275, 276, 277, 278, 279, 280, 281, 282, 283, 284
 285, 286, 287, 288, 289, 290, 291, 323, 324, 325, 326, 327, 328, 329, 330, 331
 332, 333, 334, 335, 336, 337, 338, 339, 340, 341, 342, 343, 344, 345, 346, 347
 348, 349, 483, 484, 485, 486, 487, 488, 489, 490, 491, 492, 493, 494, 495, 496
 497, 498, 499, 500, 501, 502, 503, 504, 505, 506, 507, 508, 509, 510, 511, 512
 513, 514, 515, 516, 517, 518, 519, 520, 521, 522, 523, 524, 525, 526, 527, 528
 529, 530, 531, 532, 533, 534, 535, 536, 537, 538, 539, 540, 541, 542, 543, 544
 545, 546, 547, 548, 549, 550, 551, 552, 553, 554, 555, 556, 557, 558, 559, 560
 561, 562, 563, 564, 565, 566, 567, 568, 569, 570, 571, 572, 573, 574, 575, 576
 577, 578, 579, 580, 581, 582, 583, 584, 585, 586, 587, 588, 589, 590, 591, 592
 593, 594, 595, 596, 597, 598, 599, 600, 601, 602, 603, 604, 605, 606, 607, 608
** ... 20 like lines cut
*Elset, elset=Set-border, instance=Part-local-1
    1,    2,    3,    4,    5,    6,    7,    8,    9,   10,   11,   12,   13,   14,   15,   16
   17,   18,   19,   20,   21,   22,   23,   24,   25,   26,   27,   28,   29,   30,   31,   32
   33,   34,   35,   36,   37,   38,   39,   40,   41,   42,   43,   44,   45,   46,   47,   48
   49,   50,   51,   52,   53,   54,   55,   56,   57,   58,   59,   60,   61,   62,   63,   64
   65,   66,   67,   68,   69,   70,   71,   72,   73,   74,   75,   76,   77,   78,   79,   80
   81,   82,   83,   84,   85,   86,   87,   88,   89,   90,   91,   92,   93,   94,   95,   96
   97,   98,   99,  100,  101,  102,  103,  104,  105,  106,  107,  108,  109,  110,  111,  112
  113,  114,  115,  116,  117,  118,  119,  120,  121,  122,  123,  124,  125,  126,  127,  128
  129,  130,  131,  132,  133,  134,  135,  136,  137,  138,  139,  140,  141,  142,  143,  144
  145,  146,  147,  148,  149,  150,  151,  152,  153,  154,  155,  156,  157,  158,  159,  160
  161,  162,  163,  164,  165,  166,  167,  168,  169,  170,  171,  172,  173,  174,  175,  176
  177,  178,  179,  180,  181,  182,  183,  184,  185,  186,  187,  188,  189,  190,  191,  192
  193,  194,  195,  196,  197,  198,  199,  200,  201,  202,  203,  204,  205,  206,  207,  208
  209,  210,  211,  212,  213,  214,  215,  216,  217,  218,  219,  220,  221,  222,  223,  224
  225,  226,  227,  228,  229,  230,  231,  232,  233,  234,  235,  236,  237,  238,  239,  240
  241,  242,  243,  244,  245,  246,  247,  248,  249,  250,  251,  252,  253,  254,  255,  256
  257,  258,  259,  260,  261,  262,  263,  264,  265,  266,  267,  268,  269,  270,  271,  272
  273,  274,  275,  276,  277,  278,  279,  280,  281,  282,  283,  284,  285,  286,  287,  288
  289,  290,  291,  292,  293,  294,  295,  296,  297,  298,  299,  300,  345,  346,  387,  388
  389,  390,  391,  392,  393,  394,  395,  396,  397,  398,  399,  400,  401,  402,  403,  404
** ... 17 like lines cut
*Submodel, type=NODE, exteriorTolerance=0.05
Set-border, 
*End Assembly
** 
** MATERIALS
** 
*Material, name=Material-SS316
*Conductivity, dependencies=3
   0.2,  32.,   0.,   0.,   0.
 13.96,  27.,   1.,   0.,   0.
 35.96,1427.,   1.,   0.,   0.
135.96,1427.,   2.,   0.,   0.
140.23,2727.,   2.,   0.,   0.
    0.,  25.,   0.,   1.,   0.
    0.,  25.,   0.,   0.,   1.
*Density, dependencies=3
 7954.,  27.,   0.,   0.,   0.
 7027.,1427.,   0.,   0.,   0.
 7954.,  27.,   1.,   0.,   0.
 7027.,1427.,   1.,   0.,   0.
 7027.,1427.,   2.,   0.,   0.
 5930.,2727.,   2.,   0.,   0.
 1.225,  27.,   0.,   1.,   0.
    1.,  27.,   0.,   0.,   1.
*Latent Heat
275000.,1375.,1427.
*Specific Heat, dependencies=3
 499.07,  27.,   0.,   0.,   0.
 685.38,1427.,   0.,   0.,   0.
 499.07,  27.,   1.,   0.,   0.
 685.38,1427.,   1.,   0.,   0.
 769.86,1427.,   2.,   0.,   0.
 769.86,2727.,   2.,   0.,   0.
  1000.,  25.,   0.,   1.,   0.
    50.,  25.,   0.,   0.,   1.
    10.,  25.,   1.,   0.,   1.
     5.,  25.,   2.,   0.,   1.
*User Defined Field
** 
** PREDEFINED FIELDS
** 
FLAG_INITIAL_CONDITIONS
FLAG_IC_LINE2
** ----------------------------------------------------------------
** 
** STEP: Step-heat
** 
*Step, name=Step-heat, nlgeom=NO, inc=100000
*Heat Transfer, end=PERIOD, deltmx=200.
1e-05, 0.00025, 1e-08, 0.00025, 
** 
** BOUNDARY CONDITIONS
** 
** Name: BC-border Type: Submodel
*Boundary, submodel, step=1
Set-border, 11, 11
*FIELD,USER,NUMBER=2
Part-local-1.Set-all,
*FILM
Part-local-1.Set-all,F1NU
** 
** LOADS
** 
** Name: Load-laser   Type: Body heat flux
*Dflux, op=NEW
Part-local-1.Set-all, BFNU, 1.
** 
** OUTPUT REQUESTS
** 
*Restart, write, frequency=0
** 
** FIELD OUTPUT: F-Output-all
** 
*Output, field, time interval=2.5e-05
*Node Output
NT, 
*Element Output, directions=YES
FV, 
*Output, history, frequency=0
*End Step
** ----------------------------------------------------------------
** 
** STEP: Step-phase
** 
*Step, name=Step-phase, nlgeom=NO, inc=100000
*Heat Transfer, end=PERIOD, deltmx=1e+06
1., 1., 1e-05, 1., 
** 
** BOUNDARY CONDITIONS
** 
** Name: BC-border Type: Submodel
*Boundary, op=NEW
** 
** LOADS
** 
** Name: Load-laser   Type: Body heat flux
*Dflux, op=NEW
** Name: Load-phase   Type: Body heat flux
*Dflux, op=NEW
Part-local-1.Set-all, BF, 1000000.
*Field,User,Number=3
Part-local-1.Set-all,
*FILM, op=NEW
** 
** OUTPUT REQUESTS
** 
*Restart, write, frequency=0
** 
** FIELD OUTPUT: F-Output-all
** 
*Output, field, frequency=99999
*Node Output
NT, 
*Element Output, directions=YES
FV, 
*Output, history, frequency=0
*End Step
